@<TRIPOS>MOLECULE
2d.pdb
57 60 1 0 0
SMALL
AMBER ff14SB


@<TRIPOS>ATOM
      1 O           8.2790   -3.9150    0.5620 O.2       1       -0.2713
      2 C           8.9180   -2.8840    0.5380 C.2       1       -0.0356
      3 C          10.3420   -2.8680    1.0290 C.3       1       -0.0356
      4 N           8.3550   -1.7540    0.0660 N.am      1       -0.0800
      5 C           6.9720   -1.7710   -0.4170 C.3       1       -0.0356
      6 C           6.5810   -0.3700   -0.8930 C.3       1       -0.0356
      7 H           7.2430   -0.0410   -1.6940 H         1        0.1283
      8 O           6.6130    0.5740    0.2170 O.3       1       -0.2713
      9 C           5.3910    1.0850    0.4030 C.2       1       -0.0356
     10 O           5.1380    1.9010    1.2670 O.2       1       -0.2713
     11 C           5.1130   -0.3490   -1.3620 C.3       1       -0.0356
     12 N           4.4710    0.6160   -0.4510 N.am      1       -0.0800
     13 C           3.1190    0.9840   -0.4750 C.ar      1       -0.0356
     14 C           2.6350    1.9080    0.4420 C.ar      1       -0.0356
     15 C           1.3010    2.2720    0.4180 C.ar      1       -0.0356
     16 F           0.8300    3.1710    1.3090 F         1       -0.0960
     17 C           2.2650    0.4290   -1.4180 C.ar      1       -0.0356
     18 C           0.9320    0.7920   -1.4430 C.ar      1       -0.0356
     19 C           0.4460    1.7110   -0.5250 C.ar      1       -0.0356
     20 N          -0.9060    2.0790   -0.5500 N.3       1       -0.0800
     21 C          -1.5030    1.5760    0.6920 C.3       1       -0.0356
     22 C          -2.9840    1.9660    0.7440 C.3       1       -0.0356
     23 N          -3.6430    1.4500   -0.4670 N.pl3     1       -0.0800
     24 N          -4.7450    0.7840   -0.3930 N.2       1       -0.0800
     25 C          -5.3710    0.6500    0.7880 C.2       1       -0.0356
     26 C          -6.4790   -0.1600    0.8920 C.ar      1       -0.0356
     27 C          -7.2750   -0.4120    2.1090 C.ar      1       -0.0356
     28 C          -8.2660   -1.2720    1.7360 C.ar      1       -0.0356
     29 C          -8.1050   -1.5430    0.3770 C.ar      1       -0.0356
     30 N          -8.9780   -2.4350   -0.4180 N.2       1       -0.0800
     31 O          -9.9970   -3.0410    0.1550 O.co2     1       -0.2713
     32 O          -8.7370   -2.6230   -1.6990 O.co2     1       -0.2713
     33 O          -7.0530   -0.8760   -0.1040 O.2       1       -0.2713
     34 C          -3.0040    1.7190   -1.7650 C.3       1       -0.0356
     35 C          -1.5220    1.3450   -1.6620 C.3       1       -0.0356
     36 H          10.6220   -3.8670    1.3640 H         1        0.1283
     37 H          11.0020   -2.5590    0.2180 H         1        0.1283
     38 H          10.4330   -2.1680    1.8590 H         1        0.1283
     39 H           8.8650   -0.9290    0.0470 H         1        0.1283
     40 H           6.8850   -2.4730   -1.2450 H         1        0.1283
     41 H           6.3080   -2.0780    0.3920 H         1        0.1283
     42 H           5.0460   -0.0070   -2.3940 H         1        0.1283
     43 H           4.6630   -1.3360   -1.2550 H         1        0.1283
     44 H           3.3000    2.3430    1.1730 H         1        0.1283
     45 H           2.6430   -0.2860   -2.1330 H         1        0.1283
     46 H           0.2690    0.3600   -2.1780 H         1        0.1283
     47 H          -1.4120    0.4910    0.7260 H         1        0.1283
     48 H          -0.9840    2.0110    1.5460 H         1        0.1283
     49 H          -3.4480    1.5290    1.6280 H         1        0.1283
     50 H          -3.0770    3.0510    0.7780 H         1        0.1283
     51 H          -5.0050    1.1790    1.6550 H         1        0.1283
     52 H          -7.1070    0.0000    3.0930 H         1        0.1283
     53 H          -9.0370   -1.6710    2.3780 H         1        0.1283
     54 H          -3.4800    1.1190   -2.5410 H         1        0.1283
     55 H          -3.0990    2.7770   -2.0090 H         1        0.1283
     56 H          -1.0160    1.6040   -2.5920 H         1        0.1283
     57 H          -1.4290    0.2740   -1.4850 H         1        0.1283
@<TRIPOS>BOND
     1    1    2 2
     2    2    3 1
     3    2    4 am
     4    3   36 1
     5    3   37 1
     6    3   38 1
     7    4    5 1
     8    4   39 1
     9    5    6 1
    10    5   40 1
    11    5   41 1
    12    6    7 1
    13    6    8 1
    14    6   11 1
    15    8    9 1
    16    9   12 am
    17    9   10 2
    18   11   12 1
    19   11   42 1
    20   11   43 1
    21   12   13 1
    22   13   14 ar
    23   13   17 ar
    24   14   15 ar
    25   14   44 1
    26   15   19 ar
    27   15   16 1
    28   17   18 ar
    29   17   45 1
    30   18   19 ar
    31   18   46 1
    32   19   20 1
    33   20   35 1
    34   20   21 1
    35   21   22 1
    36   21   47 1
    37   21   48 1
    38   22   23 1
    39   22   49 1
    40   22   50 1
    41   23   24 2
    42   23   34 1
    43   24   25 2
    44   25   26 1
    45   25   51 1
    46   26   33 ar
    47   26   27 ar
    48   27   28 ar
    49   27   52 1
    50   28   29 ar
    51   28   53 1
    52   29   30 1
    53   29   33 ar
    54   30   31 2
    55   30   32 2
    56   34   35 1
    57   34   54 1
    58   34   55 1
    59   35   56 1
    60   35   57 1
@<TRIPOS>SUBSTRUCTURE
     1         1 RESIDUE           4 A             0 ROOT
