@<TRIPOS>MOLECULE
4e.pdb
47 50 1 0 0
SMALL
AMBER ff14SB


@<TRIPOS>ATOM
      1 O           7.6340   -2.6350    0.9980 O.2       1       -0.3007
      2 C           8.0000   -1.5380    0.6310 C.2       1       -0.0221
      3 C           9.4180   -1.0940    0.8830 C.3       1       -0.0221
      4 N           7.1410   -0.7190   -0.0080 N.am      1       -0.1954
      5 C           5.7640   -1.1540   -0.2590 C.3       1       -0.0221
      6 C           5.0060   -0.0460   -0.9920 C.3       1       -0.0221
      7 H           5.4930    0.1860   -1.9390 H         1        0.1458
      8 O           4.9110    1.1460   -0.1600 O.3       1       -0.3007
      9 C           3.6240    1.4220    0.0800 C.2       1       -0.0221
     10 O           3.2630    2.3680    0.7510 O.2       1       -0.3007
     11 C           3.5400   -0.4590   -1.2260 C.3       1       -0.0221
     12 N           2.7700    0.5590   -0.4870 N.am      1       -0.1954
     13 C           1.3750    0.6160   -0.3950 C.ar      1       -0.0221
     14 C           0.7680    1.6300    0.3350 C.ar      1       -0.0221
     15 C          -0.6100    1.6880    0.4260 C.ar      1       -0.0221
     16 F          -1.2000    2.6740    1.1360 F         1       -0.0775
     17 C          -1.3890    0.7300   -0.2140 C.ar      1       -0.0221
     18 N          -2.7890    0.7880   -0.1220 N.ar      1       -0.1954
     19 N          -3.5670    1.9510   -0.1710 N.ar      1       -0.1954
     20 C          -4.8250    1.6150   -0.0540 C.ar      1       -0.0221
     21 C          -4.8930    0.2140    0.0750 C.ar      1       -0.0221
     22 C          -6.1280   -0.5930    0.2310 C.ar      1       -0.0221
     23 C          -7.2660   -0.2640   -0.5020 C.ar      1       -0.0221
     24 C          -8.4110   -1.0260   -0.3460 C.ar      1       -0.0221
     25 C          -8.3800   -2.0930    0.5400 C.ar      1       -0.0221
     26 C          -7.2170   -2.3640    1.2360 C.ar      1       -0.0221
     27 N          -6.1390   -1.6250    1.0650 N.ar      1       -0.1954
     28 C          -3.6160   -0.2670    0.0230 C.ar      1       -0.0221
     29 C          -0.7820   -0.2840   -0.9450 C.ar      1       -0.0221
     30 F          -1.5380   -1.2150   -1.5670 F         1       -0.0775
     31 C           0.5970   -0.3370   -1.0390 C.ar      1       -0.0221
     32 H           9.9600   -1.8850    1.4020 H         1        0.1458
     33 H           9.9070   -0.8820   -0.0680 H         1        0.1458
     34 H           9.4130   -0.1930    1.4970 H         1        0.1458
     35 H           7.4340    0.1570   -0.3010 H         1        0.1458
     36 H           5.7740   -2.0550   -0.8710 H         1        0.1458
     37 H           5.2710   -1.3650    0.6900 H         1        0.1458
     38 H           3.2980   -0.4280   -2.2880 H         1        0.1458
     39 H           3.3520   -1.4520   -0.8180 H         1        0.1458
     40 H           1.3740    2.3740    0.8310 H         1        0.1458
     41 H          -5.6650    2.2940   -0.0560 H         1        0.1458
     42 H          -7.2550    0.5750   -1.1830 H         1        0.1458
     43 H          -9.3080   -0.7940   -0.9010 H         1        0.1458
     44 H          -9.2570   -2.7070    0.6850 H         1        0.1458
     45 H          -7.1900   -3.1940    1.9270 H         1        0.1458
     46 H          -3.3210   -1.3040    0.0930 H         1        0.1458
     47 H           1.0690   -1.1250   -1.6070 H         1        0.1458
@<TRIPOS>BOND
     1    1    2 2
     2    2    3 1
     3    2    4 am
     4    3   32 1
     5    3   33 1
     6    3   34 1
     7    4    5 1
     8    4   35 1
     9    5    6 1
    10    5   36 1
    11    5   37 1
    12    6    7 1
    13    6    8 1
    14    6   11 1
    15    8    9 1
    16    9   12 am
    17    9   10 2
    18   11   12 1
    19   11   38 1
    20   11   39 1
    21   12   13 1
    22   13   31 ar
    23   13   14 ar
    24   14   15 ar
    25   14   40 1
    26   15   16 1
    27   15   17 ar
    28   17   18 1
    29   17   29 ar
    30   18   28 ar
    31   18   19 ar
    32   19   20 ar
    33   20   21 ar
    34   20   41 1
    35   21   22 1
    36   21   28 ar
    37   22   27 ar
    38   22   23 ar
    39   23   24 ar
    40   23   42 1
    41   24   25 ar
    42   24   43 1
    43   25   26 ar
    44   25   44 1
    45   26   27 ar
    46   26   45 1
    47   28   46 1
    48   29   30 1
    49   29   31 ar
    50   31   47 1
@<TRIPOS>SUBSTRUCTURE
     1         1 RESIDUE           4 A             0 ROOT
