@<TRIPOS>MOLECULE
51g.pdb
43 45 1 0 0
SMALL
AMBER ff14SB


@<TRIPOS>ATOM
      1 O           1.4600    0.3760    1.7600 O.2       1       -0.3160
      2 C           1.8870   -0.1280    0.7390 C.2       1       -0.0421
      3 C           3.3180    0.0010    0.3930 C.ar      1       -0.0421
      4 C           4.1830    0.7010    1.2360 C.ar      1       -0.0421
      5 C           5.5170    0.8170    0.9070 C.ar      1       -0.0421
      6 C           5.9990    0.2420   -0.2550 C.ar      1       -0.0421
      7 N           7.4330    0.3700   -0.6010 N.2       1       -0.0323
      8 O           8.1850    0.9820    0.1360 O.co2     1       -0.3160
      9 O           7.8600   -0.1350   -1.6240 O.co2     1       -0.3160
     10 C           5.1480   -0.4540   -1.0950 C.ar      1       -0.0421
     11 C           3.8120   -0.5820   -0.7750 C.ar      1       -0.0421
     12 N           1.0550   -0.8090   -0.0740 N.am      1       -0.0323
     13 C          -0.3170   -0.8380    0.1940 C.ar      1       -0.0421
     14 C          -0.9540    0.2930    0.6870 C.ar      1       -0.0421
     15 C          -2.3090    0.2620    0.9500 C.ar      1       -0.0421
     16 C          -3.0320   -0.8950    0.7240 C.ar      1       -0.0421
     17 C          -4.5110   -0.9260    1.0120 C.3       1       -0.0421
     18 C          -5.2830   -0.5040   -0.2390 C.3       1       -0.0421
     19 C          -5.0670   -1.5130   -1.3690 C.3       1       -0.0421
     20 N          -4.8780    0.8440   -0.6660 N.am      1       -0.0323
     21 C          -5.9440    1.6540   -0.6150 C.2       1       -0.0421
     22 O          -7.0640    1.0500   -0.2030 O.3       1       -0.3160
     23 C          -6.7840   -0.3570    0.0750 C.3       1       -0.0421
     24 O          -5.8970    2.8310   -0.9150 O.2       1       -0.3160
     25 C          -2.4010   -2.0240    0.2340 C.ar      1       -0.0421
     26 C          -1.0470   -1.9970   -0.0370 C.ar      1       -0.0421
     27 H           3.8080    1.1510    2.1440 H         1        0.1434
     28 H           6.1880    1.3590    1.5590 H         1        0.1434
     29 H           5.5300   -0.9010   -2.0000 H         1        0.1434
     30 H           3.1480   -1.1250   -1.4310 H         1        0.1434
     31 H           1.4090   -1.2790   -0.8450 H         1        0.1434
     32 H          -0.3900    1.1970    0.8640 H         1        0.1434
     33 H          -2.8050    1.1410    1.3330 H         1        0.1434
     34 H          -4.8050   -1.9370    1.2960 H         1        0.1434
     35 H          -4.7370   -0.2400    1.8280 H         1        0.1434
     36 H          -5.4180   -2.4950   -1.0510 H         1        0.1434
     37 H          -5.6240   -1.1960   -2.2510 H         1        0.1434
     38 H          -4.0050   -1.5670   -1.6100 H         1        0.1434
     39 H          -3.9840    1.1040   -0.9390 H         1        0.1434
     40 H          -7.3790   -1.0000   -0.5740 H         1        0.1434
     41 H          -6.9790   -0.5850    1.1230 H         1        0.1434
     42 H          -2.9680   -2.9260    0.0590 H         1        0.1434
     43 H          -0.5540   -2.8790   -0.4190 H         1        0.1434
@<TRIPOS>BOND
     1    1    2 2
     2    2    3 1
     3    2   12 am
     4    3   11 ar
     5    3    4 ar
     6    4    5 ar
     7    4   27 1
     8    5    6 ar
     9    5   28 1
    10    6    7 1
    11    6   10 ar
    12    7    8 2
    13    7    9 2
    14   10   11 ar
    15   10   29 1
    16   11   30 1
    17   12   13 1
    18   12   31 1
    19   13   26 ar
    20   13   14 ar
    21   14   15 ar
    22   14   32 1
    23   15   16 ar
    24   15   33 1
    25   16   17 1
    26   16   25 ar
    27   17   18 1
    28   17   34 1
    29   17   35 1
    30   18   23 1
    31   18   19 1
    32   18   20 1
    33   19   36 1
    34   19   37 1
    35   19   38 1
    36   20   21 am
    37   20   39 1
    38   21   22 1
    39   21   24 2
    40   22   23 1
    41   23   40 1
    42   23   41 1
    43   25   26 ar
    44   25   42 1
    45   26   43 1
@<TRIPOS>SUBSTRUCTURE
     1         1 RESIDUE           4 A             0 ROOT
