@<TRIPOS>MOLECULE
9.pdb
45 48 1 0 0
SMALL
AMBER ff14SB


@<TRIPOS>ATOM
      1 O           0.5620    0.7350    1.9560 O.2       1       -0.3197
      2 C           1.4180    1.1010    1.1800 C.2       1        0.0092
      3 N           2.5240    1.6880    1.6590 N.am      1       -0.1005
      4 C           3.5080    2.1140    0.8520 C.2       1        0.0092
      5 N           3.4360    1.9740   -0.4800 N.am      1       -0.1005
      6 C           2.3800    1.4030   -1.0770 C.2       1        0.0092
      7 O           2.3690    1.3030   -2.2850 O.2       1       -0.3197
      8 O           4.4880    2.6390    1.3400 O.2       1       -0.3197
      9 C           1.2140    0.8780   -0.2910 C.3       1        0.0092
     10 C           1.0330   -0.6180   -0.5660 C.3       1        0.0092
     11 H           0.6700   -0.7580   -1.5850 H         1        0.1328
     12 N           0.0510   -1.1500    0.3770 N.3       1       -0.1005
     13 C          -0.1190   -2.5700    0.0480 C.3       1        0.0092
     14 C           1.2300   -3.2800    0.1920 C.3       1        0.0092
     15 H           1.6000   -3.1490    1.2090 H         1        0.1328
     16 C           1.0500   -4.7720   -0.0930 C.3       1        0.0092
     17 O           2.1730   -2.7360   -0.7290 O.3       1       -0.3197
     18 C           2.3580   -1.3590   -0.3930 C.3       1        0.0092
     19 H           2.6910   -1.2780    0.6420 H         1        0.1328
     20 C           3.4090   -0.7430   -1.3180 C.3       1        0.0092
     21 C          -1.1670   -0.5050    0.1840 C.ar      1        0.0092
     22 C          -2.3300   -1.2050    0.5200 C.ar      1        0.0092
     23 F          -2.2390   -2.4650    1.0000 F         1       -0.0930
     24 C          -3.5690   -0.6190    0.3670 C.ar      1        0.0092
     25 C          -3.6650    0.6710   -0.1210 C.ar      1        0.0092
     26 N          -4.9920    1.3080   -0.2780 N.2       1       -0.1005
     27 O          -6.0010    0.6950    0.0220 O.co2     1       -0.3197
     28 O          -5.0750    2.4450   -0.7090 O.co2     1       -0.3197
     29 C          -2.5210    1.3640   -0.4610 C.ar      1        0.0092
     30 C          -1.2720    0.7790   -0.3190 C.ar      1        0.0092
     31 C          -0.0680    1.5820   -0.7470 C.3       1        0.0092
     32 H           2.6160    1.8090    2.6170 H         1        0.1328
     33 H           4.1690    2.2970   -1.0280 H         1        0.1328
     34 H          -0.8420   -3.0180    0.7290 H         1        0.1328
     35 H          -0.4740   -2.6660   -0.9780 H         1        0.1328
     36 H           0.6740   -4.9050   -1.1080 H         1        0.1328
     37 H           2.0090   -5.2800    0.0090 H         1        0.1328
     38 H           0.3380   -5.1950    0.6160 H         1        0.1328
     39 H           2.9440   -0.4700   -2.2650 H         1        0.1328
     40 H           3.8290    0.1470   -0.8500 H         1        0.1328
     41 H           4.2030   -1.4670   -1.4980 H         1        0.1328
     42 H          -4.4630   -1.1670    0.6280 H         1        0.1328
     43 H          -2.6000    2.3720   -0.8420 H         1        0.1328
     44 H          -0.1160    2.5750   -0.2980 H         1        0.1328
     45 H          -0.0630    1.6770   -1.8330 H         1        0.1328
@<TRIPOS>BOND
     1    1    2 2
     2    2    3 am
     3    2    9 1
     4    3    4 am
     5    3   32 1
     6    4    5 am
     7    4    8 2
     8    5    6 am
     9    5   33 1
    10    6    9 1
    11    6    7 2
    12    9   31 1
    13    9   10 1
    14   10   18 1
    15   10   11 1
    16   10   12 1
    17   12   13 1
    18   12   21 1
    19   13   14 1
    20   13   34 1
    21   13   35 1
    22   14   15 1
    23   14   16 1
    24   14   17 1
    25   16   36 1
    26   16   37 1
    27   16   38 1
    28   17   18 1
    29   18   19 1
    30   18   20 1
    31   20   39 1
    32   20   40 1
    33   20   41 1
    34   21   30 ar
    35   21   22 ar
    36   22   23 1
    37   22   24 ar
    38   24   25 ar
    39   24   42 1
    40   25   26 1
    41   25   29 ar
    42   26   27 2
    43   26   28 2
    44   29   30 ar
    45   29   43 1
    46   30   31 1
    47   31   44 1
    48   31   45 1
@<TRIPOS>SUBSTRUCTURE
     1         1 RESIDUE           4 A             0 ROOT
