@<TRIPOS>MOLECULE
2f.pdb
60 63 1 0 0
SMALL
AMBER ff14SB


@<TRIPOS>ATOM
      1 O           8.9070    3.1160   -2.0150 O.2       1       -0.3252
      2 C           9.4990    2.2690   -1.3800 C.2       1       -0.0366
      3 C          10.9730    2.0500   -1.6080 C.3       1       -0.0366
      4 N           8.8410    1.5280   -0.4680 N.am      1       -0.0885
      5 C           7.4100    1.7450   -0.2420 C.3       1       -0.0366
      6 C           6.9110    0.7810    0.8360 C.3       1       -0.0366
      7 H           7.4550    0.9370    1.7680 H         1        0.1282
      8 O           7.0480   -0.5990    0.3900 O.3       1       -0.3252
      9 C           5.8410   -1.1750    0.3420 C.2       1       -0.0366
     10 O           5.6690   -2.3280    0.0010 O.2       1       -0.3252
     11 C           5.3960    0.9560    1.0580 C.3       1       -0.0366
     12 N           4.8390   -0.3630    0.7060 N.am      1       -0.0885
     13 C           3.4820   -0.7110    0.7460 C.ar      1       -0.0366
     14 C           3.0830   -1.9920    0.3870 C.ar      1       -0.0366
     15 C           1.7450   -2.3360    0.4270 C.ar      1       -0.0366
     16 F           1.3570   -3.5820    0.0790 F         1       -0.0950
     17 C           2.5370    0.2220    1.1490 C.ar      1       -0.0366
     18 C           1.2000   -0.1200    1.1900 C.ar      1       -0.0366
     19 C           0.7990   -1.3980    0.8270 C.ar      1       -0.0366
     20 N          -0.5580   -1.7450    0.8680 N.3       1       -0.0885
     21 C          -0.9850   -1.9440   -0.5220 C.3       1       -0.0366
     22 C          -2.4610   -2.3520   -0.5520 C.3       1       -0.0366
     23 N          -3.2420   -1.3230    0.1540 N.pl3     1       -0.0885
     24 N          -4.3950   -0.7720   -0.4190 N.2       1       -0.0885
     25 C          -5.0060    0.2100    0.1700 C.2       1       -0.0366
     26 C          -6.2920    0.7010   -0.3580 C.ar      1       -0.0366
     27 C          -6.8010    0.1890   -1.5550 C.ar      1       -0.0366
     28 Cl         -5.9220   -1.0300   -2.4240 Cl        1        0.0170
     29 C          -8.0060    0.6540   -2.0430 C.ar      1       -0.0366
     30 C          -8.7080    1.6250   -1.3510 C.ar      1       -0.0366
     31 C          -8.2090    2.1370   -0.1660 C.ar      1       -0.0366
     32 C          -7.0100    1.6770    0.3370 C.ar      1       -0.0366
     33 N          -6.4790    2.2260    1.6050 N.2       1       -0.0885
     34 O          -5.9190    1.4910    2.3990 O.co2     1       -0.3252
     35 O          -6.6020    3.4110    1.8550 O.co2     1       -0.3252
     36 C          -2.7720   -0.8930    1.4810 C.3       1       -0.0366
     37 C          -1.2770   -0.5760    1.3850 C.3       1       -0.0366
     38 H          11.3290    2.7400   -2.3730 H         1        0.1282
     39 H          11.5140    2.2280   -0.6790 H         1        0.1282
     40 H          11.1410    1.0240   -1.9360 H         1        0.1282
     41 H           9.3140    0.8500    0.0400 H         1        0.1282
     42 H           7.2450    2.7720    0.0840 H         1        0.1282
     43 H           6.8650    1.5670   -1.1690 H         1        0.1282
     44 H           5.1880    1.1950    2.1010 H         1        0.1282
     45 H           4.9990    1.7280    0.4000 H         1        0.1282
     46 H           3.8190   -2.7200    0.0770 H         1        0.1282
     47 H           2.8490    1.2170    1.4320 H         1        0.1282
     48 H           0.4650    0.6070    1.5050 H         1        0.1282
     49 H          -0.8530   -1.0160   -1.0780 H         1        0.1282
     50 H          -0.3820   -2.7290   -0.9780 H         1        0.1282
     51 H          -2.8000   -2.4260   -1.5850 H         1        0.1282
     52 H          -2.5860   -3.3140   -0.0540 H         1        0.1282
     53 H          -4.5730    0.6660    1.0480 H         1        0.1282
     54 H          -8.4010    0.2600   -2.9680 H         1        0.1282
     55 H          -9.6490    1.9860   -1.7380 H         1        0.1282
     56 H          -8.7620    2.8950    0.3680 H         1        0.1282
     57 H          -3.3180   -0.0030    1.7920 H         1        0.1282
     58 H          -2.9320   -1.6930    2.2040 H         1        0.1282
     59 H          -0.8950   -0.3230    2.3740 H         1        0.1282
     60 H          -1.1270    0.2690    0.7120 H         1        0.1282
@<TRIPOS>BOND
     1    1    2 2
     2    2    3 1
     3    2    4 am
     4    3   38 1
     5    3   39 1
     6    3   40 1
     7    4    5 1
     8    4   41 1
     9    5    6 1
    10    5   42 1
    11    5   43 1
    12    6    7 1
    13    6    8 1
    14    6   11 1
    15    8    9 1
    16    9   12 am
    17    9   10 2
    18   11   12 1
    19   11   44 1
    20   11   45 1
    21   12   13 1
    22   13   14 ar
    23   13   17 ar
    24   14   15 ar
    25   14   46 1
    26   15   19 ar
    27   15   16 1
    28   17   18 ar
    29   17   47 1
    30   18   19 ar
    31   18   48 1
    32   19   20 1
    33   20   37 1
    34   20   21 1
    35   21   22 1
    36   21   49 1
    37   21   50 1
    38   22   23 1
    39   22   51 1
    40   22   52 1
    41   23   24 2
    42   23   36 1
    43   24   25 2
    44   25   26 1
    45   25   53 1
    46   26   32 ar
    47   26   27 ar
    48   27   28 1
    49   27   29 ar
    50   29   30 ar
    51   29   54 1
    52   30   31 ar
    53   30   55 1
    54   31   32 ar
    55   31   56 1
    56   32   33 1
    57   33   34 2
    58   33   35 2
    59   36   37 1
    60   36   57 1
    61   36   58 1
    62   37   59 1
    63   37   60 1
@<TRIPOS>SUBSTRUCTURE
     1         1 RESIDUE           4 A             0 ROOT
